FoamFile
{
    version     2.0;
    format      ascii;
    class       volScalarField;
    location    "0";
    object      Fe;
}

dimensions      [0 -3 0 0 1 0 0];

internalField   uniform 50.0;

boundaryField
{
    left
    {
        type            empty;
    }
    right 
    {
        type            empty;
    }
    top
    {
        type            empty;
    }
    bottom
    {
        type             empty;
    }
    front
    {
        type            empty;
    }
    back
    {
        type            empty;
    }
}
