FoamFile
{
    version     2.0;
    format      ascii;
    class       dictionary;
	location    "system";
    object      blockMeshDict;
}

vertices        
(
	(0 0 0)
	(1 0 0)
	(1 1 0)
	(0 1 0)
	(0 0 1)
	(1 0 1)
	(1 1 1)
	(0 1 1)
);

blocks          
(
	hex (0 1 2 3 4 5 6 7) (1 1 1)
	simpleGrading
	(
		1
		1
		1
	)
);

edges           
(
);

patches         
(
	empty left
	(
		(0 3 7 4)
	)

	empty right
	(
		(1 5 6 2)
	)

	empty top
	(
		(4 7 6 5)
	)

	empty bottom
	(
		(0 1 2 3)
	)

	empty front
	(
		(0 4 5 1)
	)

	empty back
	(
		(2 6 7 3)
	)
);

mergePatchPairs 
(
);
